<?xml version="1.0" encoding="UTF-8"?>

<!-- generated on 2023-02-04 16:58:46 by Eclipse SUMO netedit Version 1.15.0
-->

<routes>
    <vType id="car" accel="2.0" decel="4.5" sigma="0.5" length="5" maxSpeed="13.9" color="1,0,0"/>
    <route id="r0" edges="E4 E7"/>
    <flow id="f0" type="car" route="r0" begin="0" end="5000" period="3"/>
    <route id="r1" edges="-E0 -E1 E2"/>
    <flow id="f1" type="car" route="r1" begin="0" end="5000" period="3"/>
    <route id="r2" edges="-E3 -E4 E5"/>
    <flow id="f2" type="car" route="r2" begin="0" end="5000" period="3"/>
</routes>
