<additional>
    <!-- J1: Basic 2-phase logic -->
    <tlLogic id="J1" type="static" programID="fixed" offset="0">
        <phase duration="30" state="GrGr"/>
        <phase duration="5"  state="yryr"/>
        <phase duration="30" state="rGrG"/>
        <phase duration="5"  state="ryry"/>
    </tlLogic>

    <!-- J2: Same pattern -->
    <tlLogic id="J2" type="static" programID="fixed" offset="0">
        <phase duration="30" state="GrGr"/>
        <phase duration="5"  state="yryr"/>
        <phase duration="30" state="rGrG"/>
        <phase duration="5"  state="ryry"/>
    </tlLogic>

    <!-- J3: Same pattern -->
    <tlLogic id="J3" type="static" programID="fixed" offset="0">
        <phase duration="30" state="GrGr"/>
        <phase duration="5"  state="yryr"/>
        <phase duration="30" state="rGrG"/>
        <phase duration="5"  state="ryry"/>
    </tlLogic>

    <!-- J4: Same pattern -->
    <tlLogic id="J4" type="static" programID="fixed" offset="0">
        <phase duration="30" state="GrGr"/>
        <phase duration="5"  state="yryr"/>
        <phase duration="30" state="rGrG"/>
        <phase duration="5"  state="ryry"/>
    </tlLogic>

    <!-- J5: Same pattern -->
    <tlLogic id="J5" type="static" programID="fixed" offset="0">
        <phase duration="30" state="GrGr"/>
        <phase duration="5"  state="yryr"/>
        <phase duration="30" state="rGrG"/>
        <phase duration="5"  state="ryry"/>
    </tlLogic>

    <!-- J6: Same pattern -->
    <tlLogic id="J6" type="static" programID="fixed" offset="0">
        <phase duration="30" state="GrGr"/>
        <phase duration="5"  state="yryr"/>
        <phase duration="30" state="rGrG"/>
        <phase duration="5"  state="ryry"/>
    </tlLogic>
</additional>
