<?xml version="1.0" encoding="UTF-8"?>

<!-- generated on 2023-01-15 17:39:15 by Eclipse SUMO netedit Version 1.15.0
<configuration xmlns:xsi="http://www.w3.org/2001/XMLSchema-instance" xsi:noNamespaceSchemaLocation="http://sumo.dlr.de/xsd/netconvertConfiguration.xsd">

    <input>
        <sumo-net-file value="C:\Users\Federico Nicotra\Sumo\SemaforoConLogicheDiverse\road1.net.xml"/>
    </input>

    <output>
        <output-file value="C:\Users\Federico Nicotra\Sumo\SemaforoConLogicheDiverse\road1.net.xml"/>
    </output>

    <processing>
        <geometry.min-radius.fix.railways value="false"/>
        <geometry.max-grade.fix value="false"/>
        <offset.disable-normalization value="true"/>
        <lefthand value="0"/>
    </processing>

    <junctions>
        <no-turnarounds value="true"/>
        <junctions.corner-detail value="5"/>
        <junctions.limit-turn-speed value="5.50"/>
        <rectangular-lane-cut value="0"/>
    </junctions>

    <pedestrian>
        <walkingareas value="0"/>
    </pedestrian>

    <netedit>
        <SUMOConfig-output value="C:\Users\Federico Nicotra\Sumo\SemaforoConLogicheDiverse\incrocioSemplice.sumocfg"/>
        <additional-files value="C:\Users\Federico Nicotra\Sumo\SemaforoConLogicheDiverse\iSADD.xml"/>
        <route-files value="C:\Users\Federico Nicotra\Sumo\SemaforoConLogicheDiverse\road1.rou.xml"/>
        <data-files value="C:\Users\Federico Nicotra\Sumo\SemaforoConLogicheDiverse\iSdata.xml"/>
    </netedit>

</configuration>
-->

<net version="1.9" junctionCornerDetail="5" limitTurnSpeed="5.50" xmlns:xsi="http://www.w3.org/2001/XMLSchema-instance" xsi:noNamespaceSchemaLocation="http://sumo.dlr.de/xsd/net_file.xsd">

    <location netOffset="0.00,0.00" convBoundary="-53.10,-38.93,154.93,272.08" origBoundary="-10000000000.00,-10000000000.00,10000000000.00,10000000000.00" projParameter="!"/>

    <edge id=":J1_0" function="internal">
        <lane id=":J1_0_0" index="0" speed="6.67" length="9.38" shape="62.83,118.48 60.31,118.88 58.50,120.00 57.40,121.82 57.03,124.37"/>
    </edge>
    <edge id=":J1_1" function="internal">
        <lane id=":J1_1_0" index="0" speed="13.89" length="14.66" shape="62.83,118.48 48.18,118.92"/>
    </edge>
    <edge id=":J1_2" function="internal">
        <lane id=":J1_2_0" index="0" speed="7.93" length="3.96" shape="62.83,118.48 58.91,117.98"/>
    </edge>
    <edge id=":J1_12" function="internal">
        <lane id=":J1_12_0" index="0" speed="7.93" length="10.40" shape="58.91,117.98 56.14,116.33 54.53,113.54 54.08,109.61"/>
    </edge>
    <edge id=":J1_3" function="internal">
        <lane id=":J1_3_0" index="0" speed="6.42" length="9.04" shape="57.28,109.70 57.56,112.17 58.57,113.93 60.32,114.96 62.79,115.28"/>
    </edge>
    <edge id=":J1_4" function="internal">
        <lane id=":J1_4_0" index="0" speed="13.89" length="14.67" shape="57.28,109.70 57.03,124.37"/>
    </edge>
    <edge id=":J1_5" function="internal">
        <lane id=":J1_5_0" index="0" speed="8.32" length="4.04" shape="57.28,109.70 56.61,113.58 56.56,113.67"/>
    </edge>
    <edge id=":J1_13" function="internal">
        <lane id=":J1_13_0" index="0" speed="8.32" length="10.50" shape="56.56,113.67 54.88,116.42 52.07,118.20 48.18,118.92"/>
    </edge>
    <edge id=":J1_6" function="internal">
        <lane id=":J1_6_0" index="0" speed="6.88" length="9.65" shape="48.04,115.73 50.62,115.24 52.48,114.06 53.64,112.18 54.08,109.61"/>
    </edge>
    <edge id=":J1_7" function="internal">
        <lane id=":J1_7_0" index="0" speed="13.89" length="14.76" shape="48.04,115.73 62.79,115.28"/>
    </edge>
    <edge id=":J1_8" function="internal">
        <lane id=":J1_8_0" index="0" speed="7.91" length="4.23" shape="48.04,115.73 51.99,116.11 52.21,116.24"/>
    </edge>
    <edge id=":J1_14" function="internal">
        <lane id=":J1_14_0" index="0" speed="7.91" length="10.16" shape="52.21,116.24 54.81,117.68 56.49,120.43 57.03,124.37"/>
    </edge>
    <edge id=":J1_9" function="internal">
        <lane id=":J1_9_0" index="0" speed="6.40" length="9.04" shape="53.83,124.35 53.49,121.88 52.43,120.15 50.67,119.17 48.18,118.92"/>
    </edge>
    <edge id=":J1_10" function="internal">
        <lane id=":J1_10_0" index="0" speed="13.89" length="14.74" shape="53.83,124.35 54.08,109.61"/>
    </edge>
    <edge id=":J1_11" function="internal">
        <lane id=":J1_11_0" index="0" speed="8.13" length="4.22" shape="53.83,124.35 54.41,120.43 54.54,120.21"/>
    </edge>
    <edge id=":J1_15" function="internal">
        <lane id=":J1_15_0" index="0" speed="8.13" length="10.25" shape="54.54,120.21 56.09,117.61 58.89,115.90 62.79,115.28"/>
    </edge>
    <edge id=":J2_0" function="internal">
        <lane id=":J2_0_0" index="0" speed="13.89" length="8.07" shape="56.39,-0.99 56.29,-3.37 56.00,-4.98 55.43,-6.54 54.52,-8.76"/>
    </edge>
    <edge id=":J2_1" function="internal">
        <lane id=":J2_1_0" index="0" speed="6.93" length="7.86" shape="57.49,-9.95 58.46,-8.32 59.86,-7.21 61.68,-6.60 63.94,-6.51"/>
    </edge>
    <edge id=":J2_2" function="internal">
        <lane id=":J2_2_0" index="0" speed="13.89" length="9.27" shape="57.49,-9.95 58.53,-7.41 59.16,-5.61 59.48,-3.76 59.59,-1.03"/>
    </edge>
    <edge id=":J4_0" function="internal">
        <lane id=":J4_0_0" index="0" speed="13.89" length="1.01" shape="-54.62,37.89 -54.67,37.60 -54.69,37.39 -54.70,37.19 -54.69,36.89"/>
    </edge>
    <edge id=":J4_1" function="internal">
        <lane id=":J4_1_0" index="0" speed="13.89" length="0.34" shape="-51.49,37.02 -51.49,37.12 -51.49,37.19 -51.48,37.25 -51.47,37.35"/>
    </edge>
    <edge id=":J5_0" function="internal">
        <lane id=":J5_0_0" index="0" speed="13.89" length="11.26" shape="56.73,180.36 56.59,191.62"/>
    </edge>
    <edge id=":J5_1" function="internal">
        <lane id=":J5_1_0" index="0" speed="6.46" length="9.03" shape="53.39,191.56 53.08,189.10 52.05,187.34 50.31,186.29 47.85,185.95"/>
    </edge>
    <edge id=":J5_2" function="internal">
        <lane id=":J5_2_0" index="0" speed="13.89" length="11.22" shape="53.39,191.56 53.53,180.34"/>
    </edge>
    <edge id=":J6_0" function="internal">
        <lane id=":J6_0_0" index="0" speed="13.89" length="0.41" shape="135.09,118.99 134.97,118.96 134.89,118.94 134.81,118.94 134.68,118.93"/>
    </edge>
    <edge id=":J6_1" function="internal">
        <lane id=":J6_1_0" index="0" speed="13.89" length="1.23" shape="134.74,115.73 135.10,115.74 135.35,115.76 135.59,115.81 135.94,115.91"/>
    </edge>

    <edge id="-E0" from="J2" to="J1" priority="-1" shape="57.95,-4.51 58.21,19.33 55.47,116.99">
        <lane id="-E0_0" index="0" speed="13.89" length="110.76" shape="59.59,-1.03 59.81,19.34 57.28,109.70"/>
    </edge>
    <edge id="-E1" from="J1" to="J4" priority="-1" shape="55.47,116.99 37.31,117.82 23.54,117.01 9.42,113.33 -4.09,108.22 -15.94,101.81 -26.59,94.44 -36.41,81.34 -44.71,67.50 -50.19,54.24 -53.10,37.29">
        <lane id="-E1_0" index="0" speed="13.89" length="146.11" shape="48.18,118.92 37.30,119.42 23.29,118.60 8.93,114.86 -4.76,109.68 -16.78,103.18 -27.71,95.61 -37.74,82.23 -46.14,68.22 -51.74,54.69 -54.62,37.89"/>
    </edge>
    <edge id="-E2" from="J2" to="J4" priority="-1" shape="57.95,-4.51 52.46,-18.16 48.37,-25.71 41.26,-32.07 30.17,-37.18 17.38,-38.93 2.98,-38.89 -6.14,-34.99 -14.90,-31.02 -22.34,-25.86 -29.22,-20.43 -34.92,-14.71 -39.22,-9.34 -43.97,-1.82 -49.21,7.84 -52.33,18.09 -53.10,37.29">
        <lane id="-E2_0" index="0" speed="13.89" length="164.55" shape="54.52,-8.76 51.01,-17.48 47.10,-24.70 40.37,-30.72 29.72,-35.63 17.27,-37.33 3.31,-37.29 -5.50,-33.53 -14.11,-29.62 -21.39,-24.57 -28.15,-19.23 -33.73,-13.64 -37.92,-8.41 -42.59,-1.01 -47.73,8.46 -50.74,18.36 -51.49,37.02"/>
    </edge>
    <edge id="-E3" from="J1" to="J5" priority="-1">
        <lane id="-E3_0" index="0" speed="13.89" length="55.99" shape="57.03,124.37 56.73,180.36"/>
    </edge>
    <edge id="-E4" from="J5" to="J6" priority="-1" shape="55.11,184.32 54.93,194.99 54.96,203.09 54.54,216.05 54.55,226.74 54.77,236.35 56.96,246.59 61.21,254.45 69.05,262.96 88.23,271.85 112.08,272.08 133.90,269.32 143.62,262.93 148.05,252.71 153.33,218.62 154.54,199.14 154.47,184.58 154.67,170.05 154.93,152.77 154.86,137.24 152.33,126.89 144.19,119.86 135.12,117.34">
        <lane id="-E4_0" index="0" speed="13.89" length="304.59" shape="56.59,191.62 56.53,195.00 56.56,203.11 56.14,216.08 56.15,226.72 56.37,236.16 58.48,246.03 62.52,253.51 70.01,261.64 88.59,270.25 111.99,270.48 133.33,267.78 142.34,261.86 146.50,252.26 151.74,218.45 152.94,199.09 152.87,184.57 153.07,170.03 153.33,152.76 153.26,137.44 150.90,127.77 143.42,121.31 135.09,118.99"/>
    </edge>
    <edge id="-E5" from="J1" to="J6" priority="-1" shape="55.47,116.99 86.06,116.54 135.12,117.34">
        <lane id="-E5_0" index="0" speed="13.89" length="71.96" shape="62.79,115.28 86.06,114.94 134.74,115.73"/>
    </edge>
    <edge id="E0" from="J1" to="J2" priority="-1" shape="55.47,116.99 58.21,19.33 57.95,-4.51">
        <lane id="E0_0" index="0" speed="13.89" length="110.64" shape="54.08,109.61 56.61,19.32 56.39,-0.99"/>
    </edge>
    <edge id="E1" from="J4" to="J1" priority="-1" shape="-53.10,37.29 -50.19,54.24 -44.71,67.50 -36.41,81.34 -26.59,94.44 -15.94,101.81 -4.09,108.22 9.42,113.33 23.54,117.01 37.31,117.82 55.47,116.99">
        <lane id="E1_0" index="0" speed="13.89" length="141.46" shape="-51.47,37.35 -48.64,53.79 -43.28,66.78 -35.08,80.45 -25.47,93.27 -15.10,100.44 -3.42,106.76 9.91,111.80 23.79,115.42 37.32,116.22 48.04,115.73"/>
    </edge>
    <edge id="E2" from="J4" to="J2" priority="-1" shape="-53.10,37.29 -52.33,18.09 -49.21,7.84 -43.97,-1.82 -39.22,-9.34 -34.92,-14.71 -29.22,-20.43 -22.34,-25.86 -14.90,-31.02 -6.14,-34.99 2.98,-38.89 17.38,-38.93 30.17,-37.18 41.26,-32.07 48.37,-25.71 52.46,-18.16 57.95,-4.51">
        <lane id="E2_0" index="0" speed="13.89" length="173.30" shape="-54.69,36.89 -53.92,17.82 -50.69,7.22 -45.35,-2.63 -40.52,-10.27 -36.11,-15.78 -30.29,-21.63 -23.29,-27.15 -15.69,-32.42 -6.78,-36.45 2.65,-40.49 17.49,-40.53 30.62,-38.73 42.15,-33.42 49.64,-26.72 53.91,-18.84 57.49,-9.95"/>
    </edge>
    <edge id="E3" from="J5" to="J1" priority="-1">
        <lane id="E3_0" index="0" speed="13.89" length="55.99" shape="53.53,180.34 53.83,124.35"/>
    </edge>
    <edge id="E4" from="J6" to="J5" priority="-1" shape="135.12,117.34 144.19,119.86 152.33,126.89 154.86,137.24 154.93,152.77 154.67,170.05 154.47,184.58 154.54,199.14 153.33,218.62 148.05,252.71 143.62,262.93 133.90,269.32 112.08,272.08 88.23,271.85 69.05,262.96 61.21,254.45 56.96,246.59 54.77,236.35 54.55,226.74 54.54,216.05 54.96,203.09 54.93,194.99 55.11,184.32">
        <lane id="E4_0" index="0" speed="13.89" length="319.08" shape="135.94,115.91 144.96,118.41 153.76,126.01 156.46,137.04 156.53,152.78 156.27,170.07 156.07,184.59 156.14,199.19 154.92,218.79 149.60,253.16 144.90,264.00 134.47,270.86 112.17,273.68 87.87,273.45 68.09,264.28 59.90,255.39 55.44,247.15 53.17,236.54 52.95,226.76 52.94,216.02 53.36,203.07 53.33,194.98 53.39,191.56"/>
    </edge>
    <edge id="E5" from="J6" to="J1" priority="-1" shape="135.12,117.34 86.06,116.54 55.47,116.99">
        <lane id="E5_0" index="0" speed="13.89" length="71.86" shape="134.68,118.93 86.06,118.14 62.83,118.48"/>
    </edge>
    <edge id="E6" from="J2" to="J0" priority="-1">
        <lane id="E6_0" index="0" speed="13.89" length="31.54" shape="63.94,-6.51 95.41,-8.60"/>
    </edge>
    <edge id="E7" from="J5" to="J3" priority="-1">
        <lane id="E7_0" index="0" speed="13.89" length="23.66" shape="47.85,185.95 24.19,186.06"/>
    </edge>

    <tlLogic id="J1" type="static" programID="0" offset="0">
        <phase duration="42" state="rrrGGgrrrGGg"/>
        <phase duration="3"  state="rrryyyrrryyy"/>
        <phase duration="42" state="GGgrrrGGgrrr"/>
        <phase duration="3"  state="yyyrrryyyrrr"/>
    </tlLogic>
    <tlLogic id="J1" type="static" programID="1" offset="0">
        <phase duration="42" state="rrrGGgrrrGGg"/>
        <phase duration="3"  state="rrryyyrrryyy"/>
        <phase duration="2"  state="rrrrrrrrrrrr"/>
        <phase duration="42" state="GGgrrrGGgrrr"/>
        <phase duration="3"  state="yyyrrryyyrrr"/>
        <phase duration="2"  state="rrrrrrrrrrrr"/>
    </tlLogic>
    <tlLogic id="J1" type="static" programID="2" offset="0">
        <phase duration="42" state="rrrGGgrrrGGg"/>
        <phase duration="5"  state="rrryyyrrryyy"/>
        <phase duration="2"  state="rrrrrrrrrrrr"/>
        <phase duration="42" state="GGgrrrGGgrrr"/>
        <phase duration="5"  state="yyyrrryyyrrr"/>
        <phase duration="2"  state="rrrrrrrrrrrr"/>
    </tlLogic>

    <junction id="J0" type="dead_end" x="95.51" y="-7.00" incLanes="E6_0" intLanes="" shape="95.30,-10.19 95.51,-7.00"/>
    <junction id="J1" type="traffic_light" x="55.47" y="116.99" incLanes="E5_0 -E0_0 E1_0 E3_0" intLanes=":J1_0_0 :J1_1_0 :J1_12_0 :J1_3_0 :J1_4_0 :J1_13_0 :J1_6_0 :J1_7_0 :J1_14_0 :J1_9_0 :J1_10_0 :J1_15_0" shape="62.86,120.08 62.76,113.68 60.55,113.27 59.79,112.73 59.26,111.96 58.95,110.96 58.87,109.74 52.48,109.56 51.92,112.01 51.29,112.89 50.42,113.53 49.31,113.95 47.96,114.13 48.26,120.52 50.47,120.87 51.25,121.39 51.80,122.14 52.13,123.12 52.23,124.34 58.63,124.37 59.11,122.02 59.70,121.19 60.52,120.59 61.57,120.22">
        <request index="0"  response="000000010000" foes="000100010000" cont="0"/>
        <request index="1"  response="111000110000" foes="111100110000" cont="0"/>
        <request index="2"  response="110011110000" foes="110111110000" cont="1"/>
        <request index="3"  response="000000000000" foes="100010000000" cont="0"/>
        <request index="4"  response="000100000100" foes="100110000111" cont="0"/>
        <request index="5"  response="111100000100" foes="111110000110" cont="1"/>
        <request index="6"  response="010000000000" foes="010000000100" cont="0"/>
        <request index="7"  response="110000111000" foes="110000111100" cont="0"/>
        <request index="8"  response="110000110111" foes="110000110111" cont="1"/>
        <request index="9"  response="000000000000" foes="000000100010" cont="0"/>
        <request index="10" response="000100000100" foes="000111100110" cont="0"/>
        <request index="11" response="000100011100" foes="000110111110" cont="1"/>
    </junction>
    <junction id="J2" type="priority" x="57.95" y="-4.51" incLanes="E0_0 E2_0" intLanes=":J2_0_0 :J2_1_0 :J2_2_0" shape="54.79,-0.97 61.19,-1.04 61.49,-3.11 61.88,-3.85 62.44,-4.40 63.16,-4.75 64.04,-4.91 63.83,-8.11 61.61,-8.27 60.73,-8.59 59.99,-9.08 59.41,-9.73 58.97,-10.55 53.03,-8.16 54.09,-5.59 54.41,-4.67 54.62,-3.72 54.74,-2.55">
        <request index="0" response="000" foes="000" cont="0"/>
        <request index="1" response="000" foes="000" cont="0"/>
        <request index="2" response="000" foes="000" cont="0"/>
    </junction>
    <junction id="J3" type="dead_end" x="24.18" y="184.46" incLanes="E7_0" intLanes="" shape="24.19,187.66 24.18,184.46"/>
    <junction id="J4" type="priority" x="-53.10" y="37.29" incLanes="-E1_0 -E2_0" intLanes=":J4_0_0 :J4_1_0" shape="-56.20,38.16 -49.89,37.08 -56.28,36.82 -56.30,37.32 -56.29,37.50 -56.28,37.67 -56.24,37.88">
        <request index="0" response="00" foes="00" cont="0"/>
        <request index="1" response="00" foes="00" cont="0"/>
    </junction>
    <junction id="J5" type="priority" x="55.11" y="184.32" incLanes="-E3_0 E4_0" intLanes=":J5_0_0 :J5_1_0 :J5_2_0" shape="58.33,180.37 51.93,180.33 51.47,182.56 50.90,183.34 50.10,183.90 49.08,184.24 47.84,184.35 47.86,187.55 50.07,187.99 50.84,188.54 51.38,189.31 51.70,190.31 51.79,191.53 58.19,191.64">
        <request index="0" response="000" foes="000" cont="0"/>
        <request index="1" response="000" foes="000" cont="0"/>
        <request index="2" response="000" foes="000" cont="0"/>
    </junction>
    <junction id="J6" type="priority" x="135.12" y="117.34" incLanes="-E4_0 -E5_0" intLanes=":J6_0_0 :J6_1_0" shape="134.66,120.53 136.37,114.37 135.79,114.21 135.58,114.17 135.37,114.15 135.11,114.14 134.76,114.13">
        <request index="0" response="00" foes="00" cont="0"/>
        <request index="1" response="00" foes="00" cont="0"/>
    </junction>

    <junction id=":J1_12_0" type="internal" x="58.91" y="117.98" incLanes=":J1_2_0 E1_0" intLanes=":J1_4_0 :J1_5_0 :J1_6_0 :J1_7_0 :J1_10_0 :J1_11_0"/>
    <junction id=":J1_13_0" type="internal" x="56.56" y="113.67" incLanes=":J1_5_0 E3_0" intLanes=":J1_1_0 :J1_2_0 :J1_7_0 :J1_8_0 :J1_9_0 :J1_10_0"/>
    <junction id=":J1_14_0" type="internal" x="52.21" y="116.24" incLanes=":J1_8_0 E5_0" intLanes=":J1_0_0 :J1_1_0 :J1_4_0 :J1_5_0 :J1_10_0 :J1_11_0"/>
    <junction id=":J1_15_0" type="internal" x="54.54" y="120.21" incLanes=":J1_11_0 -E0_0" intLanes=":J1_1_0 :J1_2_0 :J1_3_0 :J1_4_0 :J1_7_0 :J1_8_0"/>

    <connection from="-E0" to="-E5" fromLane="0" toLane="0" via=":J1_3_0" tl="J1" linkIndex="3" dir="r" state="O"/>
    <connection from="-E0" to="-E3" fromLane="0" toLane="0" via=":J1_4_0" tl="J1" linkIndex="4" dir="s" state="O"/>
    <connection from="-E0" to="-E1" fromLane="0" toLane="0" via=":J1_5_0" tl="J1" linkIndex="5" dir="l" state="o"/>
    <connection from="-E1" to="E2" fromLane="0" toLane="0" via=":J4_0_0" dir="s" state="M"/>
    <connection from="-E2" to="E1" fromLane="0" toLane="0" via=":J4_1_0" dir="s" state="M"/>
    <connection from="-E3" to="-E4" fromLane="0" toLane="0" via=":J5_0_0" dir="s" state="M"/>
    <connection from="-E4" to="E5" fromLane="0" toLane="0" via=":J6_0_0" dir="s" state="M"/>
    <connection from="-E5" to="E4" fromLane="0" toLane="0" via=":J6_1_0" dir="s" state="M"/>
    <connection from="E0" to="-E2" fromLane="0" toLane="0" via=":J2_0_0" dir="s" state="M"/>
    <connection from="E1" to="E0" fromLane="0" toLane="0" via=":J1_6_0" tl="J1" linkIndex="6" dir="r" state="o"/>
    <connection from="E1" to="-E5" fromLane="0" toLane="0" via=":J1_7_0" tl="J1" linkIndex="7" dir="s" state="o"/>
    <connection from="E1" to="-E3" fromLane="0" toLane="0" via=":J1_8_0" tl="J1" linkIndex="8" dir="l" state="o"/>
    <connection from="E2" to="E6" fromLane="0" toLane="0" via=":J2_1_0" dir="r" state="M"/>
    <connection from="E2" to="-E0" fromLane="0" toLane="0" via=":J2_2_0" dir="s" state="M"/>
    <connection from="E3" to="-E1" fromLane="0" toLane="0" via=":J1_9_0" tl="J1" linkIndex="9" dir="r" state="O"/>
    <connection from="E3" to="E0" fromLane="0" toLane="0" via=":J1_10_0" tl="J1" linkIndex="10" dir="s" state="O"/>
    <connection from="E3" to="-E5" fromLane="0" toLane="0" via=":J1_11_0" tl="J1" linkIndex="11" dir="l" state="o"/>
    <connection from="E4" to="E7" fromLane="0" toLane="0" via=":J5_1_0" dir="r" state="M"/>
    <connection from="E4" to="E3" fromLane="0" toLane="0" via=":J5_2_0" dir="s" state="M"/>
    <connection from="E5" to="-E3" fromLane="0" toLane="0" via=":J1_0_0" tl="J1" linkIndex="0" dir="r" state="o"/>
    <connection from="E5" to="-E1" fromLane="0" toLane="0" via=":J1_1_0" tl="J1" linkIndex="1" dir="s" state="o"/>
    <connection from="E5" to="E0" fromLane="0" toLane="0" via=":J1_2_0" tl="J1" linkIndex="2" dir="l" state="o"/>

    <connection from=":J1_0" to="-E3" fromLane="0" toLane="0" dir="r" state="M"/>
    <connection from=":J1_1" to="-E1" fromLane="0" toLane="0" dir="s" state="M"/>
    <connection from=":J1_2" to="E0" fromLane="0" toLane="0" via=":J1_12_0" dir="l" state="m"/>
    <connection from=":J1_12" to="E0" fromLane="0" toLane="0" dir="l" state="M"/>
    <connection from=":J1_3" to="-E5" fromLane="0" toLane="0" dir="r" state="M"/>
    <connection from=":J1_4" to="-E3" fromLane="0" toLane="0" dir="s" state="M"/>
    <connection from=":J1_5" to="-E1" fromLane="0" toLane="0" via=":J1_13_0" dir="l" state="m"/>
    <connection from=":J1_13" to="-E1" fromLane="0" toLane="0" dir="l" state="M"/>
    <connection from=":J1_6" to="E0" fromLane="0" toLane="0" dir="r" state="M"/>
    <connection from=":J1_7" to="-E5" fromLane="0" toLane="0" dir="s" state="M"/>
    <connection from=":J1_8" to="-E3" fromLane="0" toLane="0" via=":J1_14_0" dir="l" state="m"/>
    <connection from=":J1_14" to="-E3" fromLane="0" toLane="0" dir="l" state="M"/>
    <connection from=":J1_9" to="-E1" fromLane="0" toLane="0" dir="r" state="M"/>
    <connection from=":J1_10" to="E0" fromLane="0" toLane="0" dir="s" state="M"/>
    <connection from=":J1_11" to="-E5" fromLane="0" toLane="0" via=":J1_15_0" dir="l" state="m"/>
    <connection from=":J1_15" to="-E5" fromLane="0" toLane="0" dir="l" state="M"/>
    <connection from=":J2_0" to="-E2" fromLane="0" toLane="0" dir="s" state="M"/>
    <connection from=":J2_1" to="E6" fromLane="0" toLane="0" dir="r" state="M"/>
    <connection from=":J2_2" to="-E0" fromLane="0" toLane="0" dir="s" state="M"/>
    <connection from=":J4_0" to="E2" fromLane="0" toLane="0" dir="s" state="M"/>
    <connection from=":J4_1" to="E1" fromLane="0" toLane="0" dir="s" state="M"/>
    <connection from=":J5_0" to="-E4" fromLane="0" toLane="0" dir="s" state="M"/>
    <connection from=":J5_1" to="E7" fromLane="0" toLane="0" dir="r" state="M"/>
    <connection from=":J5_2" to="E3" fromLane="0" toLane="0" dir="s" state="M"/>
    <connection from=":J6_0" to="E5" fromLane="0" toLane="0" dir="s" state="M"/>
    <connection from=":J6_1" to="E4" fromLane="0" toLane="0" dir="s" state="M"/>

</net>
