<?xml version="1.0" encoding="UTF-8"?>

<net version="1.3" xmlns:xsi="http://www.w3.org/2001/XMLSchema-instance"
     xsi:noNamespaceSchemaLocation="http://sumo.dlr.de/xsd/net_file.xsd">

    <location netOffset="0.00,0.00" convBoundary="-500.00,-500.00,500.00,500.00" origBoundary="-500.00,-500.00,500.00,500.00" projParameter="!"/>

    <!-- Edges from external points to junction -->
    <edge id="end1_junction" from="end1" to="junction" priority="1">
        <lane id="end1_junction_0" index="0" speed="13.9" length="500" shape="0.00,500.00 0.00,0.00"/>
    </edge>

    <edge id="end2_junction" from="end2" to="junction" priority="1">
        <lane id="end2_junction_0" index="0" speed="13.9" length="500" shape="500.00,0.00 0.00,0.00"/>
    </edge>

    <edge id="end3_junction" from="end3" to="junction" priority="1">
        <lane id="end3_junction_0" index="0" speed="13.9" length="500" shape="0.00,-500.00 0.00,0.00"/>
    </edge>

    <edge id="end4_junction" from="end4" to="junction" priority="1">
        <lane id="end4_junction_0" index="0" speed="13.9" length="500" shape="-500.00,0.00 0.00,0.00"/>
    </edge>

    <!-- Edges from junction to external points -->
    <edge id="junction_end1" from="junction" to="end1" priority="1">
        <lane id="junction_end1_0" index="0" speed="13.9" length="500" shape="0.00,0.00 0.00,500.00"/>
    </edge>

    <edge id="junction_end2" from="junction" to="end2" priority="1">
        <lane id="junction_end2_0" index="0" speed="13.9" length="500" shape="0.00,0.00 500.00,0.00"/>
    </edge>

    <edge id="junction_end3" from="junction" to="end3" priority="1">
        <lane id="junction_end3_0" index="0" speed="13.9" length="500" shape="0.00,0.00 0.00,-500.00"/>
    </edge>

    <edge id="junction_end4" from="junction" to="end4" priority="1">
        <lane id="junction_end4_0" index="0" speed="13.9" length="500" shape="0.00,0.00 -500.00,0.00"/>
    </edge>

    <!-- Simple 4-phase traffic light logic
    <tlLogic id="junction" type="static" programID="0" offset="0">
        <phase duration="30" state="GrGr"/>
        <phase duration="5"  state="yryr"/>
        <phase duration="30" state="rGrG"/>
        <phase duration="5"  state="ryry"/>
    </tlLogic> -->

    <!-- Junction -->
    <junction id="end1" type="dead_end" x="0.00" y="500.00" incLanes="junction_end1_0"/>
    <junction id="end2" type="dead_end" x="500.00" y="0.00" incLanes="junction_end2_0"/>
    <junction id="end3" type="dead_end" x="0.00" y="-500.00" incLanes="junction_end3_0"/>
    <junction id="end4" type="dead_end" x="-500.00" y="0.00" incLanes="junction_end4_0"/>

    <junction id="junction" type="traffic_light" x="0.00" y="0.00"
              incLanes="end1_junction_0 end2_junction_0 end3_junction_0 end4_junction_0"
              intLanes=""
              shape="-10.00,10.00 10.00,10.00 10.00,-10.00 -10.00,-10.00 -10.00,10.00"/>

    <!-- Straight connections -->
    <connection from="end1_junction" to="junction_end3" fromLane="0" toLane="0" tl="junction" linkIndex="0" dir="s" state="O"/>
    <connection from="end2_junction" to="junction_end4" fromLane="0" toLane="0" tl="junction" linkIndex="1" dir="s" state="O"/>
    <connection from="end3_junction" to="junction_end1" fromLane="0" toLane="0" tl="junction" linkIndex="2" dir="s" state="O"/>
    <connection from="end4_junction" to="junction_end2" fromLane="0" toLane="0" tl="junction" linkIndex="3" dir="s" state="O"/>
</net>
